cases/transmission/event_cases/case2383wp-excellent-pq-hour8.m
%% MATPOWER Case Format : Version 2
function mpc = case2383wp
%   SCENARIO — Excellent PQ, morning peak (diurnal hour 8, 90% load).
%   PQ vs ideal at bus 6: local ≈ 0.0001 (best diurnal match at bus 6).
mpc.version = '2';

%%-----  Power Flow Data  -----%%
%% system MVA base
mpc.baseMVA = 100;
%% bus data
%    bus_i    type    Pd    Qd    Gs    Bs    area    Vm    Va    baseKV    zone    Vmax    Vmin
mpc.bus = [
	1	1	0.0	0.0	0.0	0.0	1	1.0915993751398567	-0.2553456121084626	220.0	1	1.11	0.95				
	2	1	0.0	0.0	0.0	0.0	1	1.0818824922802708	0.32722208283975307	220.0	1	1.11	0.95				
	3	1	0.0	0.0	0.0	0.0	1	1.0823153528258613	-21.201683599069806	220.0	1	1.11	0.95				
	4	1	0.0	0.0	0.0	0.0	1	1.0706241855979735	-6.804023480301688	220.0	1	1.11	0.95				
	5	1	0.0	0.0	0.0	0.0	1	1.0652894971010278	-16.448915114540743	220.0	1	1.11	0.95				
	6	1	0.0	0.0	0.0	0.0	1	1.023733187858953	-11.416609530775103	400.0	1	1.05	0.95				
	7	1	0.0	0.0	0.0	0.0	1	1.0561769104979342	-18.656760742661408	220.0	1	1.11	0.95				
	8	1	0.0	0.0	0.0	0.0	1	1.029678665460391	-8.573826021564466	400.0	1	1.05	0.95				
	9	1	0.0	0.0	0.0	0.0	1	1.0369078116775354	-13.896930766371414	400.0	1	1.05	0.95				
	10	2	11.007	8.1	0.0	0.0	1	1.1100000103325594	-16.139846303568948	220.0	1	1.11	0.95				
	11	1	0.0	0.0	0.0	0.0	1	1.0765527868949183	-5.483814079085736	220.0	1	1.11	0.95				
	12	1	0.0	0.0	0.0	0.0	1	1.0669223222039275	-21.040950223619987	220.0	1	1.11	0.95				
	13	1	0.0	0.0	0.0	0.0	1	1.0593544065277316	-18.736207641293568	220.0	1	1.11	0.95				
	14	1	0.0	0.0	0.0	0.0	1	1.064566680565146	-3.5167823607002884	220.0	1	1.11	0.95				
	15	1	0.0	0.0	0.0	0.0	1	1.0148717694095373	-13.103611137138701	400.0	1	1.05	0.95				
	16	2	49.39200000000001	90.0	0.0	0.0	1	1.0938271745261205	0.20771324529296578	220.0	1	1.11	0.95				
	17	2	69.30000000000001	135.0	0.0	0.0	1	1.0866368079547413	1.1216530145752837	220.0	1	1.11	0.95				
	18	3	137.7	315.0	0.0	0.0	1	1.0349333252892576	4.135995150658038e-26	400.0	1	1.05	0.95				
	19	1	0.0	0.0	0.0	0.0	1	1.0644305489304178	-19.89002675600073	220.0	1	1.11	0.95				
	20	1	0.0	0.0	0.0	0.0	1	1.0349227287469012	-1.6045715839939994	400.0	1	1.05	0.95				
	21	1	0.0	0.0	0.0	0.0	1	1.0563397256780132	-19.024415102293794	220.0	1	1.11	0.95				
	22	1	0.0	0.0	0.0	0.0	1	1.0808807441891601	-10.692457771361857	220.0	1	1.11	0.95				
	23	1	0.0	0.0	0.0	0.0	1	1.050341790787818	-14.709240518680499	220.0	2	1.11	0.95				
	24	1	0.0	0.0	0.0	0.0	1	1.0514478525837758	-10.483705554684478	220.0	2	1.11	0.95				
	25	1	0.0	0.0	0.0	0.0	1	1.0517842402109472	-9.130961030082942	220.0	2	1.11	0.95				
	26	1	0.0	0.0	0.0	0.0	1	1.0432806905903427	-17.079213833334613	220.0	2	1.11	0.95				
	27	1	0.0	0.0	0.0	0.0	1	1.0600358747002492	-8.292919336059926	220.0	2	1.11	0.95				
	28	1	0.0	0.0	0.0	0.0	1	1.060022359335804	-8.288051820590368	220.0	2	1.11	0.95				
	29	2	23.382	54.0	0.0	0.0	1	1.0694559325181634	-13.807497966839271	220.0	2	1.11	0.95				
	30	2	23.382	54.0	0.0	0.0	1	1.0693636386480507	-13.81042900172996	220.0	2	1.11	0.95				
	31	2	18.882	45.0	0.0	0.0	1	1.0130215013220691	-8.606455460693049	400.0	2	1.05	0.95				
	32	1	0.0	0.0	0.0	0.0	1	1.012936730954051	-8.647767160425046	400.0	2	1.05	0.95				
	33	1	0.0	0.0	0.0	0.0	1	1.0549584062888777	-9.011959910920535	220.0	2	1.11	0.95				
	34	1	0.0	0.0	0.0	0.0	1	1.0435842533013149	-8.469164969449693	400.0	2	1.05	0.95				
	35	1	0.0	0.0	0.0	0.0	1	1.0436128395500084	-8.47640992210085	400.0	2	1.05	0.95				
	36	1	0.0	0.0	0.0	0.0	1	0.9959293008103538	-11.819005456322799	400.0	2	1.05	0.95				
	37	1	0.0	0.0	0.0	0.0	1	1.0517283443412968	-15.321371131231482	220.0	2	1.11	0.95				
	38	1	0.0	0.0	0.0	0.0	1	1.051731416946689	-15.319860300077073	220.0	2	1.11	0.95				
	39	1	0.0	0.0	0.0	0.0	1	1.0114381816344242	-7.551186877856065	400.0	2	1.05	0.95				
	40	1	0.0	0.0	0.0	0.0	1	1.0114323555353164	-7.542286282234318	400.0	2	1.05	0.95				
	41	2	10.791	27.0	0.0	0.0	1	1.0565094736930642	-7.1431364810837445	220.0	2	1.11	0.95				
	42	2	10.791	27.0	0.0	0.0	1	1.0564803139660301	-7.158388597551371	220.0	2	1.11	0.95				
	43	2	21.582	54.0	0.0	0.0	1	1.021169975509093	-5.209221731733472	400.0	2	1.05	0.95				
	44	2	21.582	54.0	0.0	0.0	1	1.0211930647581766	-5.220550663512748	400.0	2	1.05	0.95				
	45	2	143.856	67.5	0.0	0.0	1	1.0578474171064725	-14.559181384965637	220.0	2	1.11	0.95				
	46	1	0.0	0.0	0.0	0.0	1	1.057864029831662	-14.557572764773454	220.0	2	1.11	0.95				
	47	1	0.0	0.0	0.0	0.0	1	1.0553269488917834	-8.976510770452935	220.0	2	1.11	0.95				
	48	1	0.0	0.0	0.0	0.0	1	1.0581743594744073	-13.593545951364815	220.0	2	1.11	0.95				
	49	1	0.0	0.0	0.0	0.0	1	1.0581918212877746	-13.598360128730667	220.0	2	1.11	0.95				
	50	1	0.0	0.0	0.0	0.0	1	1.0300167626586048	-6.838807448072747	400.0	2	1.05	0.95				
	51	1	0.0	0.0	0.0	0.0	1	1.0301057933296283	-6.8561446470226555	400.0	2	1.05	0.95				
	52	1	0.0	0.0	0.0	0.0	1	1.0467825304162965	-11.391230385165828	220.0	2	1.11	0.95				
	53	1	0.0	0.0	0.0	0.0	1	1.0485496539920631	-11.290384997552934	220.0	2	1.11	0.95				
	54	1	0.0	0.0	0.0	0.0	1	1.0520615936688105	-9.064920318393698	220.0	2	1.11	0.95				
	55	1	0.0	0.0	0.0	0.0	1	1.0560026142511583	-14.310093450201375	220.0	2	1.11	0.95				
	56	1	0.0	0.0	0.0	0.0	1	1.080433024649173	-2.983942947871272	220.0	3	1.11	0.95				
	57	1	20.682000000000002	9.864	0.0	0.0	1	1.077908792299994	-5.4228138760997675	220.0	3	1.11	0.95				
	58	1	19.782	5.211	0.0	0.0	1	1.0781083967454947	-5.423259402990957	220.0	3	1.11	0.95				
	59	1	0.0	0.0	0.0	0.0	1	1.1055476769930588	2.2660771597583915	220.0	3	1.11	0.95				
	60	1	0.0	0.0	0.0	0.0	1	1.1008405397621726	-3.169870443321665	220.0	3	1.11	0.95				
	61	1	0.0	0.0	0.0	0.0	1	1.1083247203196191	3.854056367071194	220.0	3	1.11	0.95				
	62	1	0.0	0.0	0.0	0.0	1	1.1083068834043817	3.855898510686513	220.0	3	1.11	0.95				
	63	2	33.632999999999996	47.421	0.0	0.0	1	1.1099999763731678	2.5689116002884367	220.0	3	1.11	0.95				
	64	2	31.832999999999995	49.788000000000004	0.0	0.0	1	1.1082188906757673	2.3346274259191766	220.0	3	1.11	0.95				
	65	1	12.051000000000002	1.8179999999999998	0.0	0.0	1	1.1008454210640328	0.24782810897082594	220.0	3	1.11	0.95				
	66	1	0.0	0.0	0.0	0.0	1	1.0869559186207507	-7.483653192331984	220.0	3	1.11	0.95				
	67	2	54.36	82.89	0.0	0.0	1	1.0270276565269605	-5.495855981227639	400.0	3	1.05	0.95				
	68	1	0.0	0.0	0.0	0.0	1	1.0929770395264136	-6.058324899783259	220.0	3	1.11	0.95				
	69	1	0.0	0.0	0.0	0.0	1	1.1026482200704162	-0.05633171396901399	220.0	3	1.11	0.95				
	70	1	0.0	0.0	0.0	0.0	1	1.0849813661959102	-2.1954349707319736	220.0	3	1.11	0.95				
	71	1	0.0	0.0	0.0	0.0	1	1.097688592441944	-0.40033787575742125	220.0	3	1.11	0.95				
	72	1	0.0	0.0	0.0	0.0	1	1.097688592441944	-0.40033787575742125	220.0	3	1.11	0.95				
	73	1	0.0	0.0	0.0	0.0	1	1.0877905746551286	-1.4552255934013578	220.0	3	1.11	0.95				
	74	1	0.0	0.0	0.0	0.0	1	1.084589361175192	-2.3658582690054533	220.0	3	1.11	0.95				
	75	1	0.0	0.0	0.0	0.0	1	1.0315583692259123	-2.009538627882493	400.0	3	1.05	0.95				
	76	1	0.0	0.0	0.0	0.0	1	1.0315284562673313	-2.0133499425281176	400.0	3	1.05	0.95				
	77	1	0.0	0.0	0.0	0.0	1	1.0963931448524575	-1.1957517012698289	220.0	3	1.11	0.95				
	78	1	0.0	0.0	0.0	0.0	1	1.091314283968025	-4.383836807728299	220.0	3	1.11	0.95				
	79	1	0.0	0.0	0.0	0.0	1	1.0980475563508665	0.5221731976459641	220.0	3	1.11	0.95				
	80	1	0.0	0.0	0.0	0.0	1	1.0784813741174861	-5.376867813172285	220.0	3	1.11	0.95				
	81	1	0.0	0.0	0.0	0.0	1	1.078502888518702	-5.3761179812829685	220.0	3	1.11	0.95				
	82	1	0.0	0.0	0.0	0.0	1	1.103705719588545	2.7960421354145657	220.0	3	1.11	0.95				
	83	2	14.391000000000002	20.673	0.0	0.0	1	1.1044033660186063	-0.13653931584093365	220.0	3	1.11	0.95				
	84	2	14.210999999999999	20.043000000000003	0.0	0.0	1	1.104293290858742	-0.13489470998580733	220.0	3	1.11	0.95				
	85	2	8.991	15.309000000000003	0.0	0.0	1	1.099654715340544	-1.0443127398350038	220.0	3	1.11	0.95				
	86	2	8.991	14.994	0.0	0.0	1	1.0995599827879763	-1.0403848240761064	220.0	3	1.11	0.95				
	87	1	9.981	14.597999999999999	0.0	0.0	1	1.0887478623173787	-1.239628324365681	220.0	3	1.11	0.95				
	88	1	0.0	0.0	0.0	0.0	1	1.088758663096303	-1.2404254356256168	220.0	3	1.11	0.95				
	89	1	0.0	0.0	0.0	0.0	1	1.1007705498333316	1.1016717418829236	220.0	3	1.11	0.95				
	90	1	0.0	0.0	0.0	0.0	1	1.0984290870243294	-1.2045084976997922	220.0	3	1.11	0.95				
	91	1	0.0	0.0	0.0	0.0	1	1.1013301371482196	0.8394662982693857	220.0	3	1.11	0.95				
	92	1	0.0	0.0	0.0	0.0	1	1.0229396853756132	-4.594947145361994	400.0	3	1.05	0.95				
	93	2	8.991	14.751000000000003	0.0	0.0	1	1.1047399712230392	1.5393228701969772	220.0	3	1.11	0.95				
	94	1	0.0	0.0	0.0	0.0	1	1.1047353350019067	1.538573093886316	220.0	3	1.11	0.95				
	95	2	6.2010000000000005	7.335	0.0	0.0	1	1.1079700336196658	1.6821132796475435	220.0	3	1.11	0.95				
	96	1	0.0	0.0	0.0	0.0	1	1.1079657959078262	1.6777716258215845	220.0	3	1.11	0.95				
	97	2	7.820999999999999	4.734	0.0	0.0	1	1.095818962115649	-2.318496341142948	220.0	3	1.11	0.95				
	98	1	0.0	0.0	0.0	0.0	1	1.0226764090618599	-5.9415618266501	400.0	3	1.05	0.95				
	99	1	0.0	0.0	0.0	0.0	1	1.0227563786644394	-5.932808454704403	400.0	3	1.05	0.95				
	100	1	0.0	0.0	0.0	0.0	1	1.0322526477262632	-4.137073805869525	400.0	3	1.05	0.95				
	101	1	0.0	0.0	0.0	0.0	1	1.0322830665597758	-4.128990328663486	400.0	3	1.05	0.95				
	102	1	0.0	0.0	0.0	0.0	1	1.1028825749770697	1.2225869376339331	220.0	3	1.11	0.95				
	103	2	16.281000000000002	21.384	0.0	0.0	1	1.0994996743347918	-1.7860550045961394	220.0	3	1.11	0.95				
	104	2	30.312	41.499	0.0	0.0	1	1.0994395575212905	-1.7769541978460417	220.0	3	1.11	0.95				
	105	2	30.402	56.65500000000001	0.0	0.0	1	1.013788223192264	-4.163766832702115	400.0	3	1.05	0.95				
	106	1	0.0	0.0	0.0	0.0	1	1.0139302347202988	-4.175929177057993	400.0	3	1.05	0.95				
	107	1	0.0	0.0	0.0	0.0	1	1.0837847592183523	-2.5110043556306274	220.0	3	1.11	0.95				
	108	1	0.0	0.0	0.0	0.0	1	1.0851553075092064	-2.3573441428810016	220.0	3	1.11	0.95				
	109	2	0.9000000000000001	20.124	0.0	0.0	1	1.110000010540396	4.574046397528485	220.0	3	1.11	0.95				
	110	2	0.9000000000000001	19.962	0.0	0.0	1	1.1100000105202397	4.575776873511744	220.0	3	1.11	0.95				
	111	2	23.840999999999998	16.2	0.0	0.0	1	1.1051506525967423	-12.965483746525823	220.0	4	1.11	0.95				
	112	1	0.0	0.0	0.0	0.0	1	1.1050316194012622	-12.958132876270705	220.0	4	1.11	0.95				
	113	1	0.0	0.0	0.0	0.0	1	1.0612710892324588	-23.71360323428853	220.0	4	1.11	0.95				
	114	1	0.0	0.0	0.0	0.0	1	1.073223757985176	-23.176929162326818	220.0	4	1.11	0.95				
	115	1	0.0	0.0	0.0	0.0	1	0.9764577450500368	-19.190950398691506	400.0	4	1.05	0.95				
	116	1	0.0	0.0	0.0	0.0	1	0.976445104416335	-19.177091348937942	400.0	4	1.05	0.95				
	117	1	0.0	0.0	0.0	0.0	1	1.0830433044718937	-25.75153574142635	220.0	4	1.11	0.95				
	118	1	0.0	0.0	0.0	0.0	1	1.0390012006802967	-30.444428797377977	220.0	4	1.11	0.95				
	119	1	0.0	0.0	0.0	0.0	1	1.0390012006802967	-30.444428797377977	220.0	4	1.11	0.95				
	120	1	0.0	0.0	0.0	0.0	1	1.0413066915644489	-30.32884948261968	220.0	4	1.11	0.95				
	121	1	0.0	0.0	0.0	0.0	1	1.0674324312900456	-23.809628469204995	220.0	4	1.11	0.95				
	122	1	0.0	0.0	0.0	0.0	1	1.0674324312900456	-23.809628469204995	220.0	4	1.11	0.95				
	123	2	4.95	6.300000000000002	0.0	0.0	1	1.1097223977310149	-17.764001915820785	220.0	4	1.11	0.95				
	124	2	7.911	15.300000000000002	0.0	0.0	1	1.1097474208125575	-17.759597679312375	220.0	4	1.11	0.95				
	125	2	32.13	16.470000000000002	0.0	0.0	1	1.069309445441629	-27.497447770233393	220.0	4	1.11	0.95				
	126	1	22.752000000000002	14.31	0.0	0.0	1	1.0692180764033616	-27.48680509445979	220.0	4	1.11	0.95				
	127	2	23.139000000000003	13.77	0.0	0.0	1	1.0194680380612788	-20.755789491306235	400.0	4	1.05	0.95				
	128	1	0.0	0.0	0.0	0.0	1	1.0194409947044565	-20.766998667000742	400.0	4	1.05	0.95				
	129	1	0.0	0.0	0.0	0.0	1	1.054811882892088	-27.973328027816965	220.0	4	1.11	0.95				
	130	1	0.0	0.0	0.0	0.0	1	1.0379081924165598	-28.818619665822915	220.0	4	1.11	0.95				
	131	2	61.803	63.0	0.0	0.0	1	1.0934391073982213	-21.07044123854542	220.0	4	1.11	0.95				
	132	2	29.700000000000003	40.5	0.0	0.0	1	1.0935935648348911	-21.08164974340173	220.0	4	1.11	0.95				
	133	1	0.0	0.0	0.0	0.0	1	0.9831342466496058	-20.381419682347914	400.0	4	1.05	0.95				
	134	1	0.0	0.0	0.0	0.0	1	0.9831335290319931	-20.383501334571108	400.0	4	1.05	0.95				
	135	1	0.0	0.0	0.0	0.0	1	1.039712403027396	-30.416321382317417	220.0	4	1.11	0.95				
	136	1	0.0	0.0	0.0	0.0	1	1.039712403027396	-30.416321382317417	220.0	4	1.11	0.95				
	137	1	0.0	0.0	0.0	0.0	1	0.9898975939297224	-15.234681749753918	400.0	4	1.05	0.95				
	138	1	0.0	0.0	0.0	0.0	1	0.9898975939297224	-15.234681749753918	400.0	4	1.05	0.95				
	139	2	29.880000000000003	20.34	0.0	0.0	1	1.1099838984851753	-18.099986205238945	220.0	4	1.11	0.95				
	140	2	26.307000000000002	17.64	0.0	0.0	1	1.1100000098985292	-18.097189506340342	220.0	4	1.11	0.95				
	141	1	0.0	0.0	0.0	0.0	1	1.060334220368797	-29.497951908978546	220.0	4	1.11	0.95				
	142	1	0.0	0.0	0.0	0.0	1	1.0364940406758085	-30.63729349938502	220.0	4	1.11	0.95				
	143	1	0.0	0.0	0.0	0.0	1	1.0806374043724256	-26.746618553823723	220.0	4	1.11	0.95				
	144	1	0.0	0.0	0.0	0.0	1	1.0805670426853875	-26.746974779335467	220.0	4	1.11	0.95				
	145	1	0.0	0.0	0.0	0.0	1	0.9777119524449324	-25.638767708824698	400.0	4	1.05	0.95				
	146	1	0.0	0.0	0.0	0.0	1	0.9777119524449324	-25.638767708824698	400.0	4	1.05	0.95				
	147	1	0.0	0.0	0.0	0.0	1	1.0499792581005547	-26.57169772309524	220.0	4	1.11	0.95				
	148	1	0.0	0.0	0.0	0.0	1	1.0500246221044414	-26.567267776762602	220.0	4	1.11	0.95				
	149	1	0.0	0.0	0.0	0.0	1	1.0777160259952154	-27.344344179836344	220.0	4	1.11	0.95				
	150	1	0.0	0.0	0.0	0.0	1	1.0636116538167748	-22.988801058384276	220.0	4	1.11	0.95				
	151	1	0.0	0.0	0.0	0.0	1	1.063642148018282	-22.995511040029402	220.0	4	1.11	0.95				
	152	1	0.0	0.0	0.0	0.0	1	1.0571659499792674	-19.847275955652677	220.0	4	1.11	0.95				
	153	1	0.0	0.0	0.0	0.0	1	1.0571659499792674	-19.847275955652677	220.0	4	1.11	0.95				
	154	1	0.0	0.0	0.0	0.0	1	1.0349325735440136	-28.03262596079014	220.0	4	1.11	0.95				
	155	1	0.0	0.0	0.0	0.0	1	1.0707724023636382	-22.941298376071085	220.0	5	1.11	0.95				
	156	1	0.0	0.0	0.0	0.0	1	1.1100000110436823	-23.867764525893875	220.0	5	1.11	0.95				
	157	1	0.0	0.0	0.0	0.0	1	1.0207734322456776	-21.986637710931465	400.0	5	1.05	0.95				
	158	1	0.0	0.0	0.0	0.0	1	1.0207639285281624	-21.98207213269853	400.0	5	1.05	0.95				
	159	1	0.0	0.0	0.0	0.0	1	1.0283831814764766	-20.08889826306583	400.0	5	1.05	0.95				
	160	1	0.0	0.0	0.0	0.0	1	1.0284322926150025	-20.092563088710744	400.0	5	1.05	0.95				
	161	1	0.0	0.0	0.0	0.0	1	1.0646898666643698	-25.129410438714565	220.0	5	1.11	0.95				
	162	1	0.0	0.0	0.0	0.0	1	1.0646940666766505	-25.130063943414285	220.0	5	1.11	0.95				
	163	1	0.0	0.0	0.0	0.0	1	1.099800622577573	-21.39926612451473	220.0	5	1.11	0.95				
	164	1	0.0	0.0	0.0	0.0	1	1.0997958286128484	-21.40511495055211	220.0	5	1.11	0.95				
	165	1	0.0	0.0	0.0	0.0	1	1.0067541449090716	-19.697497778607325	400.0	5	1.05	0.95				
	166	1	0.0	0.0	0.0	0.0	1	1.0819903351370705	-22.31920420505327	220.0	5	1.11	0.95				
	167	1	0.0	0.0	0.0	0.0	1	1.082023987799341	-22.315843082428696	220.0	5	1.11	0.95				
	168	1	0.0	0.0	0.0	0.0	1	1.032894048313802	-21.6898358043928	400.0	5	1.05	0.95				
	169	1	0.0	0.0	0.0	0.0	1	1.0328893352071247	-21.696123040019287	400.0	5	1.05	0.95				
	170	1	0.0	0.0	0.0	0.0	1	1.0646645778891262	-22.793897530107447	220.0	5	1.11	0.95				
	171	1	0.0	0.0	0.0	0.0	1	1.0646893602191252	-22.79064470443575	220.0	5	1.11	0.95				
	172	1	0.0	0.0	0.0	0.0	1	1.077000112936859	-23.14831458097101	220.0	5	1.11	0.95				
	173	1	0.0	0.0	0.0	0.0	1	1.076971302586225	-23.14939751540294	220.0	5	1.11	0.95				
	174	1	0.0	0.0	0.0	0.0	1	1.073239909390617	-22.486332824795962	220.0	5	1.11	0.95				
	175	1	0.0	0.0	0.0	0.0	1	1.0732270053927464	-22.49022960875573	220.0	5	1.11	0.95				
	176	2	0.0	36.00000000000001	0.0	0.0	1	1.0269598867395	-18.478587614981464	400.0	5	1.05	0.95				
	177	2	0.0	36.00000000000001	0.0	0.0	1	1.027077879599384	-18.477925896616398	400.0	5	1.05	0.95				
	178	1	0.0	0.0	0.0	0.0	1	1.083672918297388	-25.941133642261427	220.0	5	1.11	0.95				
	179	1	0.0	0.0	0.0	0.0	1	1.0836987101968603	-25.93634840309482	220.0	5	1.11	0.95				
	180	2	305.86500000000007	44.64	0.0	0.0	2	1.003706730948437	-6.679337188651367	400.0	6	1.05	0.95				
	181	2	0.0	0.0	0.0	0.0	3	1.0915605025455262	-7.218397706219046	220.0	6	1.11	0.95				
	182	2	0.0	0.0	0.0	0.0	5	0.9836761630620502	-20.074866724266503	400.0	6	1.05	0.95				
	183	1	135.0	0.0	0.0	0.0	3	1.0500000104897107	-9.314850689237122	400.0	6	1.05	0.95				
	184	2	285.606	45.269999999999996	0.0	0.0	2	1.0958693792277798	-3.0070353760021553	220.0	6	1.11	0.95				
	185	2	326.187	33.03	0.0	0.0	2	1.0030303087517376	-7.387311401348905	400.0	6	1.05	0.95				
	186	2	29.997	0.9000000000000001	0.0	0.0	5	1.0690509333920313	-27.611850678304386	220.0	6	1.11	0.95				
	187	1	6.4079999999999995	1.35	0.0	0.0	1	1.0673210679699132	-21.974524272689944	110.0	1	1.12	0.95				
	188	1	6.866999999999999	0.9000000000000001	0.0	0.0	1	1.0560634746072106	-26.577587661522077	110.0	1	1.12	0.95				
	189	1	8.793	7.829999999999999	0.0	0.0	1	1.008047619220104	-25.54378228571128	110.0	1	1.12	0.95				
	190	1	5.508	1.35	0.0	0.0	1	1.1038363469824088	-4.048021568492602	110.0	1	1.12	0.95				
	191	1	5.508	1.4400000000000002	0.0	0.0	1	1.0861270165272772	-5.030626887727485	110.0	1	1.12	0.95				
	192	2	27.504	10.8	0.0	0.0	1	1.1200000091213025	-17.916361599321586	110.0	1	1.12	0.95				
	193	1	13.752	2.7	0.0	0.0	1	1.1189840093413357	-17.86830939966766	110.0	1	1.12	0.95				
	194	1	0.0	0.0	0.0	0.0	1	1.11895234696223	-18.076011751484685	110.0	1	1.12	0.95				
	195	1	7.3260000000000005	1.8000000000000003	0.0	0.0	1	1.0846790512306552	-22.878541300469173	110.0	1	1.12	0.95				
	196	2	6.228	1.35	0.0	0.0	1	1.026719602738984	-29.639278715144613	110.0	1	1.12	0.95				
	197	1	6.228	1.35	0.0	0.0	1	1.0791720017341626	-12.96490816015585	110.0	1	1.12	0.95				
	198	2	11.088000000000001	1.53	0.0	0.0	1	1.0738489488850238	-23.339887414040223	110.0	1	1.12	0.95				
	199	1	1.2870000000000001	0.45000000000000007	0.0	0.0	1	1.1092866656103773	-6.3947557408617435	110.0	1	1.12	0.95				
	200	1	0.9720000000000001	0.45000000000000007	0.0	0.0	1	1.1021917881773184	-21.871444026825838	110.0	1	1.12	0.95				
...
];

%% generator data
%    bus    Pg    Qg    Qmax    Qmin    Vg    mBase    status    Pmax    Pmin    Pc1    Pc2    Qc1min    Qc1max    Qc2min    Qc2max    ramp_agc    ramp_10    ramp_30    ramp_q    apf
mpc.gen = [
	10	400.00000397759516	107.85604481876673	120.0	0.0	1.0	168.0	1	400.0	0.0	0.0	0.0	0.0	0.0	0.0	0.0	0.0	0.0	0.0	0.0	0.0				
	16	720.0000071945955	112.89084458951359	440.00000000000006	-40.0	1.0	823.0	1	720.0	0.0	0.0	0.0	0.0	0.0	0.0	0.0	0.0	0.0	0.0	0.0	0.0				
	17	1080.0000107853095	146.6787303265872	660.0	-60.0	1.0	1234.0	1	1080.0	0.0	0.0	0.0	0.0	0.0	0.0	0.0	0.0	0.0	0.0	0.0	0.0				
	18	2070.555396887688	202.2760338186831	1540.0	-140.0	1.0	2879.0	1	2520.0	0.0	0.0	0.0	0.0	0.0	0.0	0.0	0.0	0.0	0.0	0.0	0.0				
	29	-9.80085889938284e-7	154.7644365756632	240.0	0.0	1.0	511.0	1	400.0	0.0	0.0	0.0	0.0	0.0	0.0	0.0	0.0	0.0	0.0	0.0	0.0				
	30	-9.851812764366611e-7	0.0004736234998352762	240.0	0.0	1.0	511.0	1	800.0	0.0	0.0	0.0	0.0	0.0	0.0	0.0	0.0	0.0	0.0	0.0	0.0				
	31	1000.0000099933127	4.545778840129852e-8	350.0	0.0	1.0	420.0	1	1000.0	0.0	0.0	0.0	0.0	0.0	0.0	0.0	0.0	0.0	0.0	0.0	0.0				
	41	200.00000198571092	-7.371228660993538e-7	120.0	0.0	1.0	241.0	1	200.0	0.0	0.0	0.0	0.0	0.0	0.0	0.0	0.0	0.0	0.0	0.0	0.0				
	42	-9.726368014755747e-7	-7.363110562381446e-7	120.0	0.0	1.0	241.0	1	409.99999999999994	0.0	0.0	0.0	0.0	0.0	0.0	0.0	0.0	0.0	0.0	0.0	0.0				
	43	410.0000040924652	-8.901058808755562e-7	240.0	0.0	1.0	482.0	1	409.99999999999994	0.0	0.0	0.0	0.0	0.0	0.0	0.0	0.0	0.0	0.0	0.0	0.0				
	44	410.000004090728	-8.902730411891537e-7	240.0	0.0	1.0	482.0	1	409.99999999999994	0.0	0.0	0.0	0.0	0.0	0.0	0.0	0.0	0.0	0.0	0.0	0.0				
	45	42.20000099689118	20.999997694114427	21.0	0.0	1.0	49.0	1	42.2	0.0	0.0	0.0	0.0	0.0	0.0	0.0	0.0	0.0	0.0	0.0	0.0				
	63	650.0000064922963	113.69610586427923	302.0	0.0	1.0	473.0	1	650.0	0.0	0.0	0.0	0.0	0.0	0.0	0.0	0.0	0.0	0.0	0.0	0.0				
	64	450.00000449009895	78.16740938282933	311.0	2.0	1.0	475.0	1	450.0	0.0	0.0	0.0	0.0	0.0	0.0	0.0	0.0	0.0	0.0	0.0	0.0				
	67	750.0000074911738	136.78446481098916	449.0	0.0	1.0	864.0	1	750.0	0.0	0.0	0.0	0.0	0.0	0.0	0.0	0.0	0.0	0.0	0.0	0.0				
	83	225.00000224380554	157.74380616355785	190.0	-89.0	1.0	239.0	1	225.0	0.0	0.0	0.0	0.0	0.0	0.0	0.0	0.0	0.0	0.0	0.0	0.0				
	84	225.00000223988036	-88.97547277943868	190.0	-89.0	1.0	251.0	1	225.0	0.0	0.0	0.0	0.0	0.0	0.0	0.0	0.0	0.0	0.0	0.0	0.0				
	85	120.00000118430792	124.99948246022943	125.0	-50.0	1.0	133.0	1	120.0	0.0	0.0	0.0	0.0	0.0	0.0	0.0	0.0	0.0	0.0	0.0	0.0				
	86	120.00000113115115	-26.808511223140396	125.0	-50.0	1.0	133.0	1	120.0	0.0	0.0	0.0	0.0	0.0	0.0	0.0	0.0	0.0	0.0	0.0	0.0				
	93	120.00000118516874	31.293397767778753	90.0	5.0	1.0	123.0	1	120.0	0.0	0.0	0.0	0.0	0.0	0.0	0.0	0.0	0.0	0.0	0.0	0.0				
	95	110.00000107600007	27.00000335975191	68.0	27.0	1.0	105.0	1	110.00000000000001	0.0	0.0	0.0	0.0	0.0	0.0	0.0	0.0	0.0	0.0	0.0	0.0				
	97	87.60000099652167	30.033077897842958	68.0	27.0	1.0	105.0	1	87.6	0.0	0.0	0.0	0.0	0.0	0.0	0.0	0.0	0.0	0.0	0.0	0.0				
	103	-9.813349703652574e-7	176.99355727551617	177.0	-82.0	1.0	239.0	1	400.0	0.0	0.0	0.0	0.0	0.0	0.0	0.0	0.0	0.0	0.0	0.0	0.0				
	104	225.0000022301046	-31.861852633187006	379.0	-177.0	1.0	490.0	1	225.0	0.0	0.0	0.0	0.0	0.0	0.0	0.0	0.0	0.0	0.0	0.0	0.0				
	105	430.00000428392366	-164.99999918270726	353.0	-165.0	1.0	502.0	1	430.0	0.0	0.0	0.0	0.0	0.0	0.0	0.0	0.0	0.0	0.0	0.0	0.0				
	109	250.00000249653218	17.74630903093031	65.0	0.0	1.0	277.0	1	250.0	0.0	0.0	0.0	0.0	0.0	0.0	0.0	0.0	0.0	0.0	0.0	0.0				
	110	250.00000249653215	17.9086803221464	65.0	0.0	1.0	280.0	1	250.0	0.0	0.0	0.0	0.0	0.0	0.0	0.0	0.0	0.0	0.0	0.0	0.0				
	111	271.8413721403048	117.49114145028116	270.0	0.0	1.0	401.0	1	360.0	0.0	0.0	0.0	0.0	0.0	0.0	0.0	0.0	0.0	0.0	0.0	0.0				
	123	-9.753832946610726e-7	39.999923412539744	40.0	0.0	1.0	98.0	1	110.00000000000001	0.0	0.0	0.0	0.0	0.0	0.0	0.0	0.0	0.0	0.0	0.0	0.0				
	124	125.00000124237474	89.99989408181031	90.0	0.0	1.0	132.0	1	125.0	0.0	0.0	0.0	0.0	0.0	0.0	0.0	0.0	0.0	0.0	0.0	0.0				
	125	114.33110795937628	168.78830351990214	360.0	0.0	1.0	654.0	1	860.0	0.0	0.0	0.0	0.0	0.0	0.0	0.0	0.0	0.0	0.0	0.0	0.0				
	127	690.0000068927334	-3.0153581349589035e-7	360.0	0.0	1.0	540.0	1	690.0	0.0	0.0	0.0	0.0	0.0	0.0	0.0	0.0	0.0	0.0	0.0	0.0				
	131	445.72987366379255	0.0003938096312533381	360.0	0.0	1.0	696.0	1	1060.0	0.0	0.0	0.0	0.0	0.0	0.0	0.0	0.0	0.0	0.0	0.0	0.0				
	132	-9.616178411785502e-7	311.9341779451166	480.0	0.0	1.0	732.0	1	600.0	0.0	0.0	0.0	0.0	0.0	0.0	0.0	0.0	0.0	0.0	0.0	0.0				
	139	-9.357662579788178e-7	90.61631749633368	360.0	0.0	1.0	714.0	1	600.0	0.0	0.0	0.0	0.0	0.0	0.0	0.0	0.0	0.0	0.0	0.0	0.0				
	140	200.00000199026684	119.99922930461959	120.0	0.0	1.0	240.0	1	200.0	0.0	0.0	0.0	0.0	0.0	0.0	0.0	0.0	0.0	0.0	0.0	0.0				
	176	600.0000059969468	-119.99983358916468	220.00000000000003	-120.0	1.0	430.0	1	600.0	0.0	0.0	0.0	0.0	0.0	0.0	0.0	0.0	0.0	0.0	0.0	0.0				
	177	200.00000199694682	113.01574751715206	220.00000000000003	-120.0	1.0	430.0	1	200.0	0.0	0.0	0.0	0.0	0.0	0.0	0.0	0.0	0.0	0.0	0.0	0.0				
	180	0.0	-7.711284453187034	99999.0	-99999.0	1.0	7485.0	1	0.0	0.0	0.0	0.0	0.0	0.0	0.0	0.0	0.0	0.0	0.0	0.0	0.0				
	181	175.00000174679377	19.47228456471162	99999.0	-99999.0	1.0	210.0	1	175.0	0.0	0.0	0.0	0.0	0.0	0.0	0.0	0.0	0.0	0.0	0.0	0.0				
	182	307.5900030729979	-5.421557152567848	99999.0	-99999.0	1.0	13465.0	1	307.59	0.0	0.0	0.0	0.0	0.0	0.0	0.0	0.0	0.0	0.0	0.0	0.0				
	184	0.0	62.05144267436857	99999.0	-99999.0	1.0	8353.0	1	0.0	0.0	0.0	0.0	0.0	0.0	0.0	0.0	0.0	0.0	0.0	0.0	0.0				
	185	0.0	-8.757537461000807	99999.0	-99999.0	1.0	14254.0	1	0.0	0.0	0.0	0.0	0.0	0.0	0.0	0.0	0.0	0.0	0.0	0.0	0.0				
	186	0.0	-4.183533020315253	99999.0	-99999.0	1.0	7401.0	1	0.0	0.0	0.0	0.0	0.0	0.0	0.0	0.0	0.0	0.0	0.0	0.0	0.0				
	192	95.00000099685766	19.247814009969407	50.0	0.0	1.0	114.0	1	95.0	0.0	0.0	0.0	0.0	0.0	0.0	0.0	0.0	0.0	0.0	0.0	0.0				
	196	0.9000009972899535	1.0000009193138815	1.0	0.0	1.0	1.0	1	0.9000000000000001	0.0	0.0	0.0	0.0	0.0	0.0	0.0	0.0	0.0	0.0	0.0	0.0				
	198	0.8000009970167146	0.9999996533272177	1.0	0.0	1.0	1.0	1	0.8	0.0	0.0	0.0	0.0	0.0	0.0	0.0	0.0	0.0	0.0	0.0	0.0				
	205	15.000000996819592	4.6919133964262	10.0	0.0	1.0	18.0	1	15.0	0.0	0.0	0.0	0.0	0.0	0.0	0.0	0.0	0.0	0.0	0.0	0.0				
	213	11.000000997061786	8.000000353861388	8.0	0.0	1.0	13.0	1	11.0	0.0	0.0	0.0	0.0	0.0	0.0	0.0	0.0	0.0	0.0	0.0	0.0				
	264	2.5000009971110764	4.783873328947739e-6	2.0	0.0	1.0	3.0	1	2.5	0.0	0.0	0.0	0.0	0.0	0.0	0.0	0.0	0.0	0.0	0.0	0.0				
	269	6.000000996897952	4.999999312897863	5.0	0.0	1.0	7.0	1	6.0	0.0	0.0	0.0	0.0	0.0	0.0	0.0	0.0	0.0	0.0	0.0	0.0				
	277	70.00000099678604	36.60749167482495	42.0	0.0	1.0	84.0	1	70.0	0.0	0.0	0.0	0.0	0.0	0.0	0.0	0.0	0.0	0.0	0.0	0.0				
	278	60.00000099681348	6.961492889399619	40.0	0.0	1.0	72.0	1	60.0	0.0	0.0	0.0	0.0	0.0	0.0	0.0	0.0	0.0	0.0	0.0	0.0				
	279	60.00000099680195	17.077445027993335	40.0	0.0	1.0	72.0	1	60.0	0.0	0.0	0.0	0.0	0.0	0.0	0.0	0.0	0.0	0.0	0.0	0.0				
	281	120.00000119675957	29.365704762473264	90.0	0.0	1.0	144.0	1	120.0	0.0	0.0	0.0	0.0	0.0	0.0	0.0	0.0	0.0	0.0	0.0	0.0				
	282	40.000000996763355	11.454458401217849	40.0	0.0	1.0	48.0	1	40.0	0.0	0.0	0.0	0.0	0.0	0.0	0.0	0.0	0.0	0.0	0.0	0.0				
	289	2.5000009967701264	2.999997358245073	3.0	0.0	1.0	3.0	1	2.5	0.0	0.0	0.0	0.0	0.0	0.0	0.0	0.0	0.0	0.0	0.0	0.0				
	294	2.000000996919921	0.9999999441759542	1.0	0.0	1.0	2.0	1	2.0	0.0	0.0	0.0	0.0	0.0	0.0	0.0	0.0	0.0	0.0	0.0	0.0				
	314	1.5000009969813726	1.0000003327334301	1.0	0.0	1.0	2.0	1	1.5	0.0	0.0	0.0	0.0	0.0	0.0	0.0	0.0	0.0	0.0	0.0	0.0				
	328	44.0000009968941	-8.585800733206708e-7	21.0	0.0	1.0	53.0	1	44.0	0.0	0.0	0.0	0.0	0.0	0.0	0.0	0.0	0.0	0.0	0.0	0.0				
	329	44.00000099702208	19.91430056193282	21.0	0.0	1.0	53.0	1	44.0	0.0	0.0	0.0	0.0	0.0	0.0	0.0	0.0	0.0	0.0	0.0	0.0				
	330	44.000000996852435	-9.113341218535745e-7	21.0	0.0	1.0	53.0	1	44.0	0.0	0.0	0.0	0.0	0.0	0.0	0.0	0.0	0.0	0.0	0.0	0.0				
	331	43.00000099700991	16.287067358393294	21.0	0.0	1.0	52.0	1	43.0	0.0	0.0	0.0	0.0	0.0	0.0	0.0	0.0	0.0	0.0	0.0	0.0				
	334	1.5000009970117445	-7.349778877307132e-7	1.0	0.0	1.0	2.0	1	1.5	0.0	0.0	0.0	0.0	0.0	0.0	0.0	0.0	0.0	0.0	0.0	0.0				
	346	199.99995724936605	14.28190441775734	120.0	0.0	1.0	180.0	1	200.0	0.0	0.0	0.0	0.0	0.0	0.0	0.0	0.0	0.0	0.0	0.0	0.0				
	347	10.000000996885602	5.762130884202633e-7	15.0	0.0	1.0	12.0	1	10.0	0.0	0.0	0.0	0.0	0.0	0.0	0.0	0.0	0.0	0.0	0.0	0.0				
	359	1.5000009970204156	0.0001074317412563072	1.0	0.0	1.0	2.0	1	1.5	0.0	0.0	0.0	0.0	0.0	0.0	0.0	0.0	0.0	0.0	0.0	0.0				
	365	5.100000996955984	3.000000427204548	3.0	0.0	1.0	6.0	1	5.1	0.0	0.0	0.0	0.0	0.0	0.0	0.0	0.0	0.0	0.0	0.0	0.0				
	382	8.000000997017503	5.0000006130352075	5.0	0.0	1.0	10.0	1	8.0	0.0	0.0	0.0	0.0	0.0	0.0	0.0	0.0	0.0	0.0	0.0	0.0				
	383	8.000000997009037	5.000000667217389	5.0	0.0	1.0	10.0	1	8.0	0.0	0.0	0.0	0.0	0.0	0.0	0.0	0.0	0.0	0.0	0.0	0.0				
	385	6.0000009970409085	4.000000567600194	4.0	0.0	1.0	7.0	1	6.0	0.0	0.0	0.0	0.0	0.0	0.0	0.0	0.0	0.0	0.0	0.0	0.0				
	390	4.500000996713082	3.000000295492838	3.0	0.0	1.0	5.0	1	4.5	0.0	0.0	0.0	0.0	0.0	0.0	0.0	0.0	0.0	0.0	0.0	0.0				
	395	10.000000996947152	-8.615044683440053e-7	8.0	0.0	1.0	12.0	1	10.0	0.0	0.0	0.0	0.0	0.0	0.0	0.0	0.0	0.0	0.0	0.0	0.0				
	404	3.00000099674309	3.0000005169390285	3.0	0.0	1.0	4.0	1	3.0	0.0	0.0	0.0	0.0	0.0	0.0	0.0	0.0	0.0	0.0	0.0	0.0				
	426	3.200000997071295	2.0000006940477735	2.0	0.0	1.0	4.0	1	3.2	0.0	0.0	0.0	0.0	0.0	0.0	0.0	0.0	0.0	0.0	0.0	0.0				
	444	1.0000009967593295	-9.267425784723775e-7	1.0	0.0	1.0	1.0	1	1.0	0.0	0.0	0.0	0.0	0.0	0.0	0.0	0.0	0.0	0.0	0.0	0.0				
	451	4.500000996963759	3.000000533370297	3.0	0.0	1.0	5.0	1	4.5	0.0	0.0	0.0	0.0	0.0	0.0	0.0	0.0	0.0	0.0	0.0	0.0				
	482	1.0000009967495476	1.0000004011494947	1.0	0.0	1.0	1.0	1	1.0	0.0	0.0	0.0	0.0	0.0	0.0	0.0	0.0	0.0	0.0	0.0	0.0				
	492	2.000000996975951	-6.482164345881888e-7	1.0	0.0	1.0	2.0	1	2.0	0.0	0.0	0.0	0.0	0.0	0.0	0.0	0.0	0.0	0.0	0.0	0.0				
	493	234.00000233690056	79.5173389381174	130.0	0.0	1.0	281.0	1	234.0	0.0	0.0	0.0	0.0	0.0	0.0	0.0	0.0	0.0	0.0	0.0	0.0				
	494	234.0000023369635	98.44086824507153	130.0	0.0	1.0	281.0	1	234.0	0.0	0.0	0.0	0.0	0.0	0.0	0.0	0.0	0.0	0.0	0.0	0.0				
	514	115.00000114701268	84.63018882621789	90.0	0.0	1.0	138.0	1	114.99999999999999	0.0	0.0	0.0	0.0	0.0	0.0	0.0	0.0	0.0	0.0	0.0	0.0				
	515	115.00000114701953	90.00000054990537	90.0	0.0	1.0	138.0	1	114.99999999999999	0.0	0.0	0.0	0.0	0.0	0.0	0.0	0.0	0.0	0.0	0.0	0.0				
	525	6.000000996841772	4.000000161168404	4.0	0.0	1.0	7.0	1	6.0	0.0	0.0	0.0	0.0	0.0	0.0	0.0	0.0	0.0	0.0	0.0	0.0				
	536	6.000000997070078	6.000000230481131	6.0	0.0	1.0	7.0	1	6.0	0.0	0.0	0.0	0.0	0.0	0.0	0.0	0.0	0.0	0.0	0.0	0.0				
	537	3.5000009971143333	1.7635236960325837	3.0	0.0	1.0	4.0	1	3.5000000000000004	0.0	0.0	0.0	0.0	0.0	0.0	0.0	0.0	0.0	0.0	0.0	0.0				
	556	2.7000009969976	1.000000123961609	1.0	0.0	1.0	3.0	1	2.7	0.0	0.0	0.0	0.0	0.0	0.0	0.0	0.0	0.0	0.0	0.0	0.0				
	580	1.6000009969109763	0.9999996407724393	1.0	0.0	1.0	2.0	1	1.6	0.0	0.0	0.0	0.0	0.0	0.0	0.0	0.0	0.0	0.0	0.0	0.0				
	584	2.700000996993589	1.9999834337806985	2.0	0.0	1.0	3.0	1	2.7	0.0	0.0	0.0	0.0	0.0	0.0	0.0	0.0	0.0	0.0	0.0	0.0				
	585	4.000000996991506	1.9999853105983396	2.0	0.0	1.0	5.0	1	4.0	0.0	0.0	0.0	0.0	0.0	0.0	0.0	0.0	0.0	0.0	0.0	0.0				
	607	0.8000009968464235	0.0	0.0	0.0	1.0	1.0	1	0.8	0.0	0.0	0.0	0.0	0.0	0.0	0.0	0.0	0.0	0.0	0.0	0.0				
	612	-9.261117944556621e-7	119.99827452068968	120.0	0.0	1.0	256.0	1	200.0	0.0	0.0	0.0	0.0	0.0	0.0	0.0	0.0	0.0	0.0	0.0	0.0				
	613	200.00000195208582	19.418544533429102	120.0	0.0	1.0	256.0	1	200.0	0.0	0.0	0.0	0.0	0.0	0.0	0.0	0.0	0.0	0.0	0.0	0.0				
	615	1.400000996837712	0.9999988332454404	1.0	0.0	1.0	2.0	1	1.4	0.0	0.0	0.0	0.0	0.0	0.0	0.0	0.0	0.0	0.0	0.0	0.0				
	623	7.600000996988091	5.000000044347676	5.0	0.0	1.0	9.0	1	7.6	0.0	0.0	0.0	0.0	0.0	0.0	0.0	0.0	0.0	0.0	0.0	0.0				
	639	9.600000996916611	3.9999998943196813	4.0	0.0	1.0	12.0	1	9.6	0.0	0.0	0.0	0.0	0.0	0.0	0.0	0.0	0.0	0.0	0.0	0.0				
	651	4.700000996946259	2.0000000423695075	2.0	0.0	1.0	6.0	1	4.7	0.0	0.0	0.0	0.0	0.0	0.0	0.0	0.0	0.0	0.0	0.0	0.0				
	654	1.4000009968393456	-5.539254911994743e-7	1.0	0.0	1.0	2.0	1	1.4	0.0	0.0	0.0	0.0	0.0	0.0	0.0	0.0	0.0	0.0	0.0	0.0				
	664	6.200000996835611	5.999998591326109	6.0	0.0	1.0	7.0	1	6.2	0.0	0.0	0.0	0.0	0.0	0.0	0.0	0.0	0.0	0.0	0.0	0.0				
	670	2.700000996851593	-8.804312628063126e-7	2.0	0.0	1.0	3.0	1	2.7	0.0	0.0	0.0	0.0	0.0	0.0	0.0	0.0	0.0	0.0	0.0	0.0				
	674	1.0000009969983787	0.0	0.0	0.0	1.0	1.0	1	1.0	0.0	0.0	0.0	0.0	0.0	0.0	0.0	0.0	0.0	0.0	0.0	0.0				
	688	-9.50448003970625e-7	6.953458102623928e-7	120.0	0.0	1.0	242.0	1	202.0	0.0	0.0	0.0	0.0	0.0	0.0	0.0	0.0	0.0	0.0	0.0	0.0				
	692	1.4000009969248222	0.9999957502981333	1.0	0.0	1.0	2.0	1	1.4	0.0	0.0	0.0	0.0	0.0	0.0	0.0	0.0	0.0	0.0	0.0	0.0				
	699	3.800000996885526	-8.581388492356236e-7	2.0	0.0	1.0	5.0	1	3.8	0.0	0.0	0.0	0.0	0.0	0.0	0.0	0.0	0.0	0.0	0.0	0.0				
	712	1.2000009969881245	1.000000244857577	1.0	0.0	1.0	1.0	1	1.2	0.0	0.0	0.0	0.0	0.0	0.0	0.0	0.0	0.0	0.0	0.0	0.0				
	730	6.900000996806645	-8.895634254173921e-7	3.0	0.0	1.0	8.0	1	6.9	0.0	0.0	0.0	0.0	0.0	0.0	0.0	0.0	0.0	0.0	0.0	0.0				
	732	1.100000996957129	-6.93057252256886e-7	1.0	0.0	1.0	1.0	1	1.1	0.0	0.0	0.0	0.0	0.0	0.0	0.0	0.0	0.0	0.0	0.0	0.0				
	735	4.100000996930276	2.000000018883129	2.0	0.0	1.0	5.0	1	4.1	0.0	0.0	0.0	0.0	0.0	0.0	0.0	0.0	0.0	0.0	0.0	0.0				
	740	4.000000996727658	-9.126864107329562e-7	1.0	0.0	1.0	5.0	1	4.0	0.0	0.0	0.0	0.0	0.0	0.0	0.0	0.0	0.0	0.0	0.0	0.0				
	744	134.00000133665793	-8.795420725631761e-7	60.0	0.0	1.0	161.0	1	134.0	0.0	0.0	0.0	0.0	0.0	0.0	0.0	0.0	0.0	0.0	0.0	0.0				
	754	80.00000098693314	-2.291772675914043e-7	30.0	0.0	1.0	54.0	1	80.0	0.0	0.0	0.0	0.0	0.0	0.0	0.0	0.0	0.0	0.0	0.0	0.0				
	755	-9.573060357374393e-7	3.4442009776851497	80.0	0.0	1.0	110.0	1	250.0	0.0	0.0	0.0	0.0	0.0	0.0	0.0	0.0	0.0	0.0	0.0	0.0				
	760	3.100000996960597	0.7717821177699117	2.0	0.0	1.0	4.0	1	3.1	0.0	0.0	0.0	0.0	0.0	0.0	0.0	0.0	0.0	0.0	0.0	0.0				
	766	2.1000009969794067	0.1549054066090455	1.0	0.0	1.0	3.0	1	2.1	0.0	0.0	0.0	0.0	0.0	0.0	0.0	0.0	0.0	0.0	0.0	0.0				
	784	0.700000996925189	0.0	0.0	0.0	1.0	1.0	1	0.7	0.0	0.0	0.0	0.0	0.0	0.0	0.0	0.0	0.0	0.0	0.0	0.0				
	790	49.800000996745766	35.0	35.0	35.0	1.0	60.0	1	49.8	0.0	0.0	0.0	0.0	0.0	0.0	0.0	0.0	0.0	0.0	0.0	0.0				
	795	1.8900009966383944	1.0	1.0	1.0	1.0	2.0	1	1.8900000000000001	0.0	0.0	0.0	0.0	0.0	0.0	0.0	0.0	0.0	0.0	0.0	0.0				
	798	2.990000996673636	3.0	3.0	3.0	1.0	4.0	1	2.99	0.0	0.0	0.0	0.0	0.0	0.0	0.0	0.0	0.0	0.0	0.0	0.0				
	814	44.92000099664366	14.479545007765266	42.0	0.0	1.0	54.0	1	44.92	0.0	0.0	0.0	0.0	0.0	0.0	0.0	0.0	0.0	0.0	0.0	0.0				
	834	55.0000009748168	82.99999066148608	83.0	0.0	1.0	110.0	1	55.00000000000001	0.0	0.0	0.0	0.0	0.0	0.0	0.0	0.0	0.0	0.0	0.0	0.0				
	878	2.9900009965505228	0.0	0.0	0.0	1.0	4.0	1	2.99	0.0	0.0	0.0	0.0	0.0	0.0	0.0	0.0	0.0	0.0	0.0	0.0				
	884	2.4900009967798304	0.0	0.0	0.0	1.0	3.0	1	2.49	0.0	0.0	0.0	0.0	0.0	0.0	0.0	0.0	0.0	0.0	0.0	0.0				
	892	31.870000996731406	30.438705370846293	42.0	6.0	1.0	38.0	1	31.869999999999997	0.0	0.0	0.0	0.0	0.0	0.0	0.0	0.0	0.0	0.0	0.0	0.0				
	895	8.960000996659767	7.000000000000001	7.000000000000001	7.000000000000001	1.0	11.0	1	8.96	0.0	0.0	0.0	0.0	0.0	0.0	0.0	0.0	0.0	0.0	0.0	0.0				
	901	3.6800009966280465	2.0	2.0	2.0	1.0	4.0	1	3.6799999999999997	0.0	0.0	0.0	0.0	0.0	0.0	0.0	0.0	0.0	0.0	0.0	0.0				
	910	4.580000996646712	3.0	3.0	3.0	1.0	6.0	1	4.58	0.0	0.0	0.0	0.0	0.0	0.0	0.0	0.0	0.0	0.0	0.0	0.0				
	911	370.0000036895218	91.81142350501061	224.00000000000003	0.0	1.0	415.0	1	370.0	0.0	0.0	0.0	0.0	0.0	0.0	0.0	0.0	0.0	0.0	0.0	0.0				
	912	235.36208340144466	113.38498550198351	224.00000000000003	0.0	1.0	415.0	1	370.0	0.0	0.0	0.0	0.0	0.0	0.0	0.0	0.0	0.0	0.0	0.0	0.0				
	914	15.930000996689042	10.0	10.0	10.0	1.0	19.0	1	15.93	0.0	0.0	0.0	0.0	0.0	0.0	0.0	0.0	0.0	0.0	0.0	0.0				
	917	2.0900009965574258	0.0	0.0	0.0	1.0	3.0	1	2.09	0.0	0.0	0.0	0.0	0.0	0.0	0.0	0.0	0.0	0.0	0.0	0.0				
	919	21.910000996023445	12.0	12.0	12.0	1.0	26.0	1	21.91	0.0	0.0	0.0	0.0	0.0	0.0	0.0	0.0	0.0	0.0	0.0	0.0				
	920	1.9900009965170509	0.0	0.0	0.0	1.0	2.0	1	1.9900000000000002	0.0	0.0	0.0	0.0	0.0	0.0	0.0	0.0	0.0	0.0	0.0	0.0				
	929	63.73000099657503	29.000000756115618	50.0	28.999999999999996	1.0	77.0	1	63.73	0.0	0.0	0.0	0.0	0.0	0.0	0.0	0.0	0.0	0.0	0.0	0.0				
	959	2.490000996886665	1.0	1.0	1.0	1.0	3.0	1	2.49	0.0	0.0	0.0	0.0	0.0	0.0	0.0	0.0	0.0	0.0	0.0	0.0				
	968	0.7000009968340717	0.0	0.0	0.0	1.0	1.0	1	0.7	0.0	0.0	0.0	0.0	0.0	0.0	0.0	0.0	0.0	0.0	0.0	0.0				
	993	3.9800009969048142	1.0	1.0	1.0	1.0	5.0	1	3.9800000000000004	0.0	0.0	0.0	0.0	0.0	0.0	0.0	0.0	0.0	0.0	0.0	0.0				
	994	1.9900009969048178	1.0	1.0	1.0	1.0	2.0	1	1.9900000000000002	0.0	0.0	0.0	0.0	0.0	0.0	0.0	0.0	0.0	0.0	0.0	0.0				
	995	-9.73815075932171e-7	37.999998591530414	38.0	0.0	1.0	60.0	1	100.0	0.0	0.0	0.0	0.0	0.0	0.0	0.0	0.0	0.0	0.0	0.0	0.0				
	996	-9.560609900406247e-7	4.330171704427994	38.0	0.0	1.0	60.0	1	50.0	0.0	0.0	0.0	0.0	0.0	0.0	0.0	0.0	0.0	0.0	0.0	0.0				
	997	-9.70326937301468e-7	37.99999984042675	38.0	0.0	1.0	60.0	1	50.0	0.0	0.0	0.0	0.0	0.0	0.0	0.0	0.0	0.0	0.0	0.0	0.0				
	1004	4.280000996722468	3.0	3.0	3.0	1.0	5.0	1	4.28	0.0	0.0	0.0	0.0	0.0	0.0	0.0	0.0	0.0	0.0	0.0	0.0				
	1024	0.10000099678248384	0.0	0.0	0.0	1.0	0.0	1	0.1	0.0	0.0	0.0	0.0	0.0	0.0	0.0	0.0	0.0	0.0	0.0	0.0				
	1027	24.900000996562135	13.0	13.0	13.0	1.0	30.0	1	24.9	0.0	0.0	0.0	0.0	0.0	0.0	0.0	0.0	0.0	0.0	0.0	0.0				
	1028	2.9900009965616987	3.0	3.0	3.0	1.0	4.0	1	2.99	0.0	0.0	0.0	0.0	0.0	0.0	0.0	0.0	0.0	0.0	0.0	0.0				
	1029	24.90000099657328	14.000000000000002	14.000000000000002	14.000000000000002	1.0	30.0	1	24.9	0.0	0.0	0.0	0.0	0.0	0.0	0.0	0.0	0.0	0.0	0.0	0.0				
	1053	59.7600009966457	26.620593061431023	53.0	0.0	1.0	72.0	1	59.760000000000005	0.0	0.0	0.0	0.0	0.0	0.0	0.0	0.0	0.0	0.0	0.0	0.0				
	1054	29.880000996871225	3.86256309501282e-6	31.0	0.0	1.0	36.0	1	29.880000000000003	0.0	0.0	0.0	0.0	0.0	0.0	0.0	0.0	0.0	0.0	0.0	0.0				
	1105	7.970000996720702	10.0	10.0	10.0	1.0	10.0	1	7.969999999999999	0.0	0.0	0.0	0.0	0.0	0.0	0.0	0.0	0.0	0.0	0.0	0.0				
	1106	22.910000996717365	13.0	13.0	13.0	1.0	28.0	1	22.91	0.0	0.0	0.0	0.0	0.0	0.0	0.0	0.0	0.0	0.0	0.0	0.0				
	1107	10.560000996621232	3.0	3.0	3.0	1.0	13.0	1	10.56	0.0	0.0	0.0	0.0	0.0	0.0	0.0	0.0	0.0	0.0	0.0	0.0				
	1138	44.82000099656332	30.443196080254914	41.0	0.0	1.0	54.0	1	44.82	0.0	0.0	0.0	0.0	0.0	0.0	0.0	0.0	0.0	0.0	0.0	0.0				
	1140	230.00000228667784	56.95630278934451	199.0	-87.0	1.0	252.0	1	229.99999999999997	0.0	0.0	0.0	0.0	0.0	0.0	0.0	0.0	0.0	0.0	0.0	0.0				
	1141	-9.003199869588874e-7	69.14640177957587	190.0	-89.0	1.0	251.0	1	225.0	0.0	0.0	0.0	0.0	0.0	0.0	0.0	0.0	0.0	0.0	0.0	0.0				
	1175	37.84000099676484	20.0	20.0	20.0	1.0	45.0	1	37.84	0.0	0.0	0.0	0.0	0.0	0.0	0.0	0.0	0.0	0.0	0.0	0.0				
	1182	-9.817414775884735e-7	13.423177731730801	125.0	-50.0	1.0	133.0	1	120.0	0.0	0.0	0.0	0.0	0.0	0.0	0.0	0.0	0.0	0.0	0.0	0.0				
	1183	120.00000119290544	12.996102493812051	125.0	-50.0	1.0	133.0	1	120.0	0.0	0.0	0.0	0.0	0.0	0.0	0.0	0.0	0.0	0.0	0.0	0.0				
	1184	-8.815842914909857e-7	81.19314819699942	125.0	-50.0	1.0	133.0	1	120.0	0.0	0.0	0.0	0.0	0.0	0.0	0.0	0.0	0.0	0.0	0.0	0.0				
	1191	106.56000106229007	27.623630058629896	129.0	-47.0	1.0	128.0	1	106.56000000000002	0.0	0.0	0.0	0.0	0.0	0.0	0.0	0.0	0.0	0.0	0.0	0.0				
	1192	250.00000249344706	48.95431813535414	125.0	-50.0	1.0	123.0	1	250.0	0.0	0.0	0.0	0.0	0.0	0.0	0.0	0.0	0.0	0.0	0.0	0.0				
	1201	99.59000099653942	0.007194449931930863	90.0	0.0	1.0	120.0	1	99.59	0.0	0.0	0.0	0.0	0.0	0.0	0.0	0.0	0.0	0.0	0.0	0.0				
	1202	99.5900009965394	60.3437067116226	90.0	0.0	1.0	120.0	1	99.59	0.0	0.0	0.0	0.0	0.0	0.0	0.0	0.0	0.0	0.0	0.0	0.0				
	1203	99.59000099655225	34.353086324253276	90.0	0.0	1.0	120.0	1	99.59	0.0	0.0	0.0	0.0	0.0	0.0	0.0	0.0	0.0	0.0	0.0	0.0				
	1232	51.79000099673726	21.649134860490378	41.0	0.0	1.0	62.0	1	51.790000000000006	0.0	0.0	0.0	0.0	0.0	0.0	0.0	0.0	0.0	0.0	0.0	0.0				
	1233	14.940000996748873	19.064888032375286	41.0	0.0	1.0	18.0	1	14.940000000000001	0.0	0.0	0.0	0.0	0.0	0.0	0.0	0.0	0.0	0.0	0.0	0.0				
	1244	18.920000996686177	20.0	20.0	20.0	1.0	23.0	1	18.92	0.0	0.0	0.0	0.0	0.0	0.0	0.0	0.0	0.0	0.0	0.0	0.0				
	1247	15.930000996683985	12.0	12.0	12.0	1.0	19.0	1	15.93	0.0	0.0	0.0	0.0	0.0	0.0	0.0	0.0	0.0	0.0	0.0	0.0				
	1250	197.19000196854407	54.55779978886808	151.0	0.0	1.0	237.0	1	197.19	0.0	0.0	0.0	0.0	0.0	0.0	0.0	0.0	0.0	0.0	0.0	0.0				
	1268	0.5000009967068714	0.0	0.0	0.0	1.0	1.0	1	0.5	0.0	0.0	0.0	0.0	0.0	0.0	0.0	0.0	0.0	0.0	0.0	0.0				
	1316	1.0000009967651307	0.0	0.0	0.0	1.0	1.0	1	1.0	0.0	0.0	0.0	0.0	0.0	0.0	0.0	0.0	0.0	0.0	0.0	0.0				
	1325	1.3900009965534603	0.0	0.0	0.0	1.0	2.0	1	1.39	0.0	0.0	0.0	0.0	0.0	0.0	0.0	0.0	0.0	0.0	0.0	0.0				
	1349	1.4900009970153247	0.0	0.0	0.0	1.0	2.0	1	1.49	0.0	0.0	0.0	0.0	0.0	0.0	0.0	0.0	0.0	0.0	0.0	0.0				
	1356	1.0000009966997816	2.0	2.0	2.0	1.0	1.0	1	1.0	0.0	0.0	0.0	0.0	0.0	0.0	0.0	0.0	0.0	0.0	0.0	0.0				
	1359	0.8000009968305932	1.0	1.0	1.0	1.0	1.0	1	0.8	0.0	0.0	0.0	0.0	0.0	0.0	0.0	0.0	0.0	0.0	0.0	0.0				
	1393	12.750000996775466	-7.594725013685767e-7	11.0	0.0	1.0	15.0	1	12.75	0.0	0.0	0.0	0.0	0.0	0.0	0.0	0.0	0.0	0.0	0.0	0.0				
	1403	4.280000996651349	1.0	1.0	1.0	1.0	5.0	1	4.28	0.0	0.0	0.0	0.0	0.0	0.0	0.0	0.0	0.0	0.0	0.0	0.0				
	1416	351.51914611080554	31.27060430888679	180.0	10.0	1.0	246.0	1	371.0	0.0	0.0	0.0	0.0	0.0	0.0	0.0	0.0	0.0	0.0	0.0	0.0				
	1417	120.00000113666054	27.370559212771873	120.0	5.0	1.0	123.0	1	120.0	0.0	0.0	0.0	0.0	0.0	0.0	0.0	0.0	0.0	0.0	0.0	0.0				
	1418	20.000000905181846	32.34124123311591	90.0	5.0	1.0	123.0	1	20.0	0.0	0.0	0.0	0.0	0.0	0.0	0.0	0.0	0.0	0.0	0.0	0.0				
	1426	495.00000478969656	32.10572137405107	68.0	27.0	1.0	106.0	1	495.0	0.0	0.0	0.0	0.0	0.0	0.0	0.0	0.0	0.0	0.0	0.0	0.0				
	1429	0.20000099668493135	0.0	0.0	0.0	1.0	0.0	1	0.2	0.0	0.0	0.0	0.0	0.0	0.0	0.0	0.0	0.0	0.0	0.0	0.0				
	1469	0.6000009968092367	0.0	0.0	0.0	1.0	1.0	1	0.6	0.0	0.0	0.0	0.0	0.0	0.0	0.0	0.0	0.0	0.0	0.0	0.0				
	1475	2.0900009966790836	2.0	2.0	2.0	1.0	3.0	1	2.09	0.0	0.0	0.0	0.0	0.0	0.0	0.0	0.0	0.0	0.0	0.0	0.0				
	1504	31.170000996704267	2.0	2.0	2.0	1.0	37.0	1	31.17	0.0	0.0	0.0	0.0	0.0	0.0	0.0	0.0	0.0	0.0	0.0	0.0				
	1505	48.80000099669225	4.0	4.0	4.0	1.0	59.0	1	48.8	0.0	0.0	0.0	0.0	0.0	0.0	0.0	0.0	0.0	0.0	0.0	0.0				
	1514	2.2900009939462245	1.0	1.0	1.0	1.0	3.0	1	2.29	0.0	0.0	0.0	0.0	0.0	0.0	0.0	0.0	0.0	0.0	0.0	0.0				
	1534	0.300000996682256	0.0	0.0	0.0	1.0	0.0	1	0.3	0.0	0.0	0.0	0.0	0.0	0.0	0.0	0.0	0.0	0.0	0.0	0.0				
	1536	-9.701560897616024e-7	30.676534917585325	190.0	-89.0	1.0	251.0	1	225.0	0.0	0.0	0.0	0.0	0.0	0.0	0.0	0.0	0.0	0.0	0.0	0.0				
	1537	225.00000224294774	60.95621181696688	202.99999999999997	-95.0	1.0	255.0	1	225.0	0.0	0.0	0.0	0.0	0.0	0.0	0.0	0.0	0.0	0.0	0.0	0.0				
	1538	215.00000213918076	24.03041351051047	190.0	-89.0	1.0	255.0	1	215.0	0.0	0.0	0.0	0.0	0.0	0.0	0.0	0.0	0.0	0.0	0.0	0.0				
	1542	8.960000996692294	3.0	3.0	3.0	1.0	11.0	1	8.96	0.0	0.0	0.0	0.0	0.0	0.0	0.0	0.0	0.0	0.0	0.0	0.0				
	1543	1.2000009965918828	0.0	0.0	0.0	1.0	1.0	1	1.2	0.0	0.0	0.0	0.0	0.0	0.0	0.0	0.0	0.0	0.0	0.0	0.0				
	1550	1.7900009966378874	1.0	1.0	1.0	1.0	2.0	1	1.79	0.0	0.0	0.0	0.0	0.0	0.0	0.0	0.0	0.0	0.0	0.0	0.0				
	1566	54.77000099672821	22.30325893383575	47.0	20.0	1.0	66.0	1	54.77000000000001	0.0	0.0	0.0	0.0	0.0	0.0	0.0	0.0	0.0	0.0	0.0	0.0				
	1587	63.74000099668067	27.0	27.0	27.0	1.0	77.0	1	63.739999999999995	0.0	0.0	0.0	0.0	0.0	0.0	0.0	0.0	0.0	0.0	0.0	0.0				
	1600	17.43000099662029	3.0	3.0	3.0	1.0	21.0	1	17.43	0.0	0.0	0.0	0.0	0.0	0.0	0.0	0.0	0.0	0.0	0.0	0.0				
	1602	120.00000109072948	14.374282400317787	90.0	0.0	1.0	144.0	1	120.0	0.0	0.0	0.0	0.0	0.0	0.0	0.0	0.0	0.0	0.0	0.0	0.0				
	1603	120.00000118466434	56.45517123099735	90.0	0.0	1.0	144.0	1	120.0	0.0	0.0	0.0	0.0	0.0	0.0	0.0	0.0	0.0	0.0	0.0	0.0				
	1609	0.3000009973901672	0.0	0.0	0.0	1.0	0.0	1	0.3	0.0	0.0	0.0	0.0	0.0	0.0	0.0	0.0	0.0	0.0	0.0	0.0				
	1617	2.0000009971265857	0.0	0.0	0.0	1.0	2.0	1	2.0	0.0	0.0	0.0	0.0	0.0	0.0	0.0	0.0	0.0	0.0	0.0	0.0				
	1620	1.6000009971175293	0.0	0.0	0.0	1.0	2.0	1	1.6	0.0	0.0	0.0	0.0	0.0	0.0	0.0	0.0	0.0	0.0	0.0	0.0				
...
];

%% branch data
%    f_bus    t_bus    r    x    b    rateA    rateB    rateC    ratio    angle    status    angmin    angmax
mpc.branch = [
	16	1	0.00155	0.01169	0.0182	160.0	160.0	160.0	0	0	1	-60.0001403060998	60.0001403060998	83.88142740456243	8.968196704825859	-83.78896517243672	-10.44397536145838				
	355	1	0.00157	0.06612	0.0	160.0	160.0	160.0	1.0099	0.0	1	-60.0001403060998	60.0001403060998	-83.69502694515293	-6.487799827698424	83.78896517243672	10.44397536145838				
	17	2	0.00155	0.01169	0.0182	160.0	160.0	160.0	0	0	1	-60.0001403060998	60.0001403060998	142.9097173436624	25.136936181685996	-142.63260505730523	-25.186610040541996				
	354	2	0.00157	0.06612	0.0	160.0	160.0	160.0	1.022	0.0	1	-60.0001403060998	60.0001403060998	-142.35121266382373	-13.335867966021523	142.63260505730523	25.186610040541996				
	10	3	0.01068	0.07895	0.1226	274.0	274.0	274.0	0	0	1	-60.0001403060998	60.0001403060998	137.80592124487387	18.66328292835064	-136.1002284947344	-20.787747846529143				
	219	3	0.00165	0.06736	0.0	160.0	160.0	160.0	1.027	0.0	1	-60.0001403060998	60.0001403060998	-52.15847907336402	-13.516773350175985	52.20012188946047	15.216809769725462				
	220	3	0.00165	0.06736	0.0	160.0	160.0	160.0	0.9955	0.0	1	-60.0001403060998	60.0001403060998	-83.80051748641229	-1.5052877455790596	83.90010660527395	5.570938076803684				
	7	4	0.01674	0.09711	0.14423	377.0	377.0	377.0	0	0	1	-60.0001403060998	60.0001403060998	-230.7407305613316	40.844927419977644	239.08911766638772	-8.725885381179415				
	11	4	0.00293	0.01599	0.02478	335.0	335.0	335.0	0	0	1	-60.0001403060998	60.0001403060998	168.09609768608655	9.590906830827345	-167.37867177247642	-8.531816553203628				
	14	4	0.00442	0.03223	0.04985	463.99999999999994	463.99999999999994	463.99999999999994	0	0	1	-60.0001403060998	60.0001403060998	197.1244310868618	-44.04778957937835	-195.54264984460195	49.90015998907877				
	16	4	0.00888	0.06665	0.08896	377.0	377.0	377.0	0	0	1	-60.0001403060998	60.0001403060998	217.45272471702663	16.926548255590053	-213.90648686602412	-0.730099883145001				
	22	4	0.00783	0.043	0.04962	350.0	350.0	350.0	0	0	1	-60.0001403060998	60.0001403060998	-171.00790926779942	60.21763396116444	173.23481598772014	-53.73050553344878				
	245	4	0.00165	0.06901	0.0	160.0	160.0	160.0	1.0594	0.0	1	-60.0001403060998	60.0001403060998	-106.1019633260623	-16.032875152977383	106.27225481056198	23.155187483476134				
	246	4	0.00165	0.06901	0.0	160.0	160.0	160.0	1.0448	0.0	1	-60.0001403060998	60.0001403060998	-58.1827821740495	3.3796459645398853	58.23162001843273	-1.3370401215780865				
	5	6	0.00064	0.0305	0.0	400.0	400.0	400.0	1.0435	-0.6	1	-60.0001403060998	60.0001403060998	-264.67969374765335	6.255564113617915	265.1101344796137	14.257627018862499				
	7	5	0.00525	0.03988	0.06195	381.0	381.0	381.0	0	0	1	-60.0001403060998	60.0001403060998	-109.68992938769502	-11.054437399248656	110.25891186259517	8.406073260053295				
	10	5	0.01459	0.11219	0.16553	381.0	381.0	381.0	0	0	1	-60.0001403060998	60.0001403060998	11.250012742885323	32.591094533053614	-11.018222924481986	-50.398736900958596				
	309	5	0.00165	0.0686	0.0	160.0	160.0	160.0	1.0646	0.0	1	-60.0001403060998	60.0001403060998	-82.36015041853481	-22.8070350710233	82.46993031313313	27.3712173555355				
	309	5	0.00165	0.0686	0.0	160.0	160.0	160.0	1.0523	0.0	1	-60.0001403060998	60.0001403060998	-82.86796910761743	-4.162349037832477	82.96907449640703	8.365882171751892				
	6	8	0.00112	0.01329	0.34125	1316.0	1316.0	1316.0	0	0	1	-60.0001403060998	60.0001403060998	-393.6162540185709	-20.747817820216273	395.2720755515948	4.423595168441358				
	6	9	0.00299	0.03675	0.9184	1427.0	1427.0	1427.0	0	0	1	-60.0001403060998	60.0001403060998	121.43304861671378	-91.9994242642449	-120.95743224968416	0.3475246184615773				
	15	6	0.00298	0.03417	0.93504	1427.0	1427.0	1427.0	0	0	1	-60.0001403060998	60.0001403060998	-91.00062025453873	-65.21777344174214	91.2486435187582	-29.088673718302793				
	31	6	0.0015	0.01506	0.4032	1385.0	1385.0	1385.0	0	0	1	-60.0001403060998	60.0001403060998	328.00312287394746	-117.13007585942148	-326.29460203175546	92.46690232140567				
	310	6	0.0015	0.06188	0.0	250.0	250.0	250.0	1.0613	0.0	1	-60.0001403060998	60.0001403060998	-241.26235852259853	0.22914425370686903	242.11902943524075	35.111386462495794				
	12	7	0.01211	0.08742	0.14017	381.0	381.0	381.0	0	0	1	-60.0001403060998	60.0001403060998	-50.679273548505996	13.272630938495167	51.000552264071295	-26.74936327351991				
	13	7	0.00205	0.01326	0.02243	335.0	335.0	335.0	0	0	1	-60.0001403060998	60.0001403060998	-7.5927638166632265	25.308699837574277	7.606710264599761	-27.72811713846105				
	19	7	0.0057	0.0407	0.06021	323.0	323.0	323.0	0	0	1	-60.0001403060998	60.0001403060998	-55.25470196283548	26.553104510314068	55.45346657047625	-31.90303113071442				
	21	7	0.00093	0.00651	0.01113	160.0	160.0	160.0	0	0	1	-60.0001403060998	60.0001403060998	-107.35113258871986	17.709637638755773	107.44998119568139	-18.25945105663291				
	29	7	0.01269	0.07498	0.1302	362.0	362.0	362.0	0	0	1	-60.0001403060998	60.0001403060998	127.80429355769233	-4.7435572412293885	-125.99119747397629	0.7487083833778133				
	321	7	0.00041	0.03368	0.0	250.0	250.0	250.0	1.0323	0.0	1	-60.0001403060998	60.0001403060998	-130.78093101459928	-0.4879362524732058	130.84397327389235	5.666627210983781				
	322	7	0.00165	0.06775	0.0	160.0	160.0	160.0	1.0569	0.0	1	-60.0001403060998	60.0001403060998	-113.80544587060734	-57.68742735154117	114.06717385428189	68.43413698423771				
	8	18	0.00336	0.03977	1.02163	1316.0	1316.0	1316.0	0	0	1	-60.0001403060998	60.0001403060998	-395.2720755515948	-4.423595168441358	400.30186651530374	-44.913527380932				
	332	9	0.00087	0.05244	-0.02144	330.0	330.0	330.0	1.0781	0.0	1	-60.0001403060998	60.0001403060998	-120.83902702363108	9.793126526399636	120.95743224968416	-0.3475246184615773				
	171	10	0.01409	0.10413	0.15972	463.99999999999994	463.99999999999994	463.99999999999994	0	0	1	-60.0001403060998	60.0001403060998	-134.22321329252082	-29.58151986545705	136.51493895800203	27.625981148677177				
	346	10	0.00124	0.06839	0.0	160.0	160.0	160.0	1.0054	0.0	1	-60.0001403060998	60.0001403060998	-6.391969492614308	6.617830211271762	6.392815366259512	-6.5711775511136				
	347	10	0.00124	0.06839	0.0	160.0	160.0	160.0	1.024	0.0	1	-60.0001403060998	60.0001403060998	-96.92698352843486	-21.802916292889236	97.02931566557433	27.446863759798905				
	16	11	0.0057	0.03952	0.07553	463.99999999999994	463.99999999999994	463.99999999999994	0	0	1	-60.0001403060998	60.0001403060998	298.3098403696284	14.956850054090594	-294.0522908656693	5.66690189443665				
	17	11	0.0057	0.03952	0.07553	463.99999999999994	463.99999999999994	463.99999999999994	0	0	1	-60.0001403060998	60.0001403060998	340.2581518792295	-6.158423121623266	-334.6691540609682	36.072759282683606				
	111	11	0.01068	0.06196	0.09496	394.0	394.0	394.0	0	0	1	-60.0001403060998	60.0001403060998	-231.53734379811272	101.46699987812889	237.23128419179292	-79.7353930718216				
	352	11	0.00165	0.06901	0.0	160.0	160.0	160.0	1.0412	0.0	1	-60.0001403060998	60.0001403060998	-130.94693756790323	6.903367149096725	131.1921329295824	3.351743099072531				
	353	11	0.00165	0.06901	0.0	160.0	160.0	160.0	1.0559	0.0	1	-60.0001403060998	60.0001403060998	-92.0719641975132	-19.617355750301765	92.20193011917566	25.05308196480148				
	140	12	0.01465	0.10589	0.17085	463.99999999999994	463.99999999999994	463.99999999999994	0	0	1	-60.0001403060998	60.0001403060998	62.68843401820373	27.434111228196585	-62.04983740665393	-43.067684367189656				
	359	12	0.00155	0.06612	0.0	160.0	160.0	160.0	1.0395	0.0	1	-60.0001403060998	60.0001403060998	-78.87283346095447	-9.29184427670308	78.96003350387558	13.011629333440656				
	360	12	0.00157	0.06612	0.0	160.0	160.0	160.0	1.059	0.0	1	-60.0001403060998	60.0001403060998	-33.74946445238452	-15.957429517383236	33.76907745128434	16.783424095253842				
	29	13	0.01345	0.08114	0.14113	339.0	339.0	339.0	0	0	1	-60.0001403060998	60.0001403060998	119.73490811702328	-9.44129600395105	-118.04876294382099	3.6235257531764535				
	365	13	0.00165	0.06901	0.0	160.0	160.0	160.0	1.0312	0.0	1	-60.0001403060998	60.0001403060998	-54.84015597387714	3.3375027232147336	54.884477811386986	-1.483775446515544				
	366	13	0.00165	0.06901	0.0	160.0	160.0	160.0	0.9872	0.0	1	-60.0001403060998	60.0001403060998	-70.67236089226253	30.990463963727798	70.75704894909722	-27.44845014423519				
	17	14	0.00384	0.02853	0.04588	463.99999999999994	463.99999999999994	463.99999999999994	0	0	1	-60.0001403060998	60.0001403060998	334.92523993187336	49.55123836624992	-331.1883941367665	-27.096145452772024				
	367	14	0.00157	0.06798	0.0	160.0	160.0	160.0	1.0664	0.0	1	-60.0001403060998	60.0001403060998	-84.70188956920393	-27.588923717357495	84.81621531059311	32.539155500564675				
	368	14	0.00165	0.06901	0.0	160.0	160.0	160.0	1.0777	0.0	1	-60.0001403060998	60.0001403060998	-49.190738630530994	-36.22041674555675	49.247747739311556	38.604779531585706				
	18	15	0.00358	0.04262	1.0944	1662.0	1662.0	1662.0	0	0	1	-60.0001403060998	60.0001403060998	564.210476293292	6.881264400351536	-553.4271435881808	6.525063851698955				
	15	165	0.00207	0.02474	0.664	831.0	831.0	831.0	0	0	1	-60.0001403060998	60.0001403060998	475.9759490500576	-13.401208185047702	-471.4140457428104	0.07884799741500514				
	374	15	0.0015	0.06188	0.0	250.0	250.0	250.0	1.1502	0.0	1	-60.0001403060998	60.0001403060998	-167.96286289049806	-51.923021971162896	168.45181479266182	72.09391777509089				
	16	18	0.00036	0.02519	0.0	500.0	500.0	500.0	1.0605	0.0	1	-60.0001403060998	60.0001403060998	15.154591791446256	-14.55015430900875	-15.15309821345773	14.654663279926256				
	16	73	0.00909	0.0624	0.11142	463.99999999999994	463.99999999999994	463.99999999999994	0	0	1	-60.0001403060998	60.0001403060998	55.80942291193178	-3.410596115984156	-55.57198163760548	-8.217010184036216				
	17	18	0.00036	0.02519	0.0	500.0	500.0	500.0	1.0607	0.0	1	-60.0001403060998	60.0001403060998	81.77750287733829	-42.98654278379273	-81.74822478086111	45.03519625674107				
	17	74	0.00868	0.06405	0.09699	463.99999999999994	463.99999999999994	463.99999999999994	0	0	1	-60.0001403060998	60.0001403060998	110.82939875320594	-13.86447831593271	-109.92158592696288	9.132435873215524				
	20	18	0.00063	0.00749	0.39226	1427.0	1427.0	1427.0	0	0	1	-60.0001403060998	60.0001403060998	-397.1530981833276	17.859475408633383	398.08975405784014	-48.73770579450029				
	75	18	0.00219	0.02369	0.59584	1434.0	1434.0	1434.0	0	0	1	-60.0001403060998	60.0001403060998	-157.77897925934226	-29.040742101671853	158.29146091767007	-29.027431791372464				
	18	76	0.00137	0.01625	0.41184	1662.0	1662.0	1662.0	0	0	1	-60.0001403060998	60.0001403060998	231.33207544181866	-15.818262740012973	-230.6470871210517	-20.0236363314856				
	18	101	0.00231	0.02769	0.70144	1662.0	1662.0	1662.0	0	0	1	-60.0001403060998	60.0001403060998	277.53108665608244	-40.79816241151798	-275.8697048898125	-14.225010948177117				
	124	19	0.01696	0.12366	0.19699	463.99999999999994	463.99999999999994	463.99999999999994	0	0	1	-60.0001403060998	60.0001403060998	40.41841505395793	23.65501515132154	-40.01708680165157	-44.018473345777956				
	425	19	0.00165	0.06818	0.0	160.0	160.0	160.0	1.0241	0.0	1	-60.0001403060998	60.0001403060998	-95.1351627904049	-11.819817979148826	95.27178876448706	17.465368835463885				
	67	20	0.00331	0.03425	0.85888	831.0	831.0	831.0	0	0	1	-60.0001403060998	60.0001403060998	-210.23662648789565	-41.4988913394792	211.6240919268952	-35.43694375150281				
	447	20	0.00137	0.06119	-0.01504	250.0	250.0	250.0	1.0796	0.0	1	-60.0001403060998	60.0001403060998	-104.83431397024319	7.361762471553115	104.97526925703389	0.5457536111464687				
	448	20	0.00137	0.06119	-0.01504	250.0	250.0	250.0	1.0923	0.0	1	-60.0001403060998	60.0001403060998	-80.46736961046138	-11.578116522301666	80.55373699939852	17.03171473172296				
	502	21	0.00165	0.07107	0.0	160.0	160.0	160.0	0.9922	0.0	1	-60.0001403060998	60.0001403060998	-107.17608695854759	25.24933032744958	107.35113258871986	-17.709637638755773				
	112	22	0.00465	0.02618	0.02962	362.0	362.0	362.0	0	0	1	-60.0001403060998	60.0001403060998	-156.67954922359485	131.5253940146659	158.29136276864546	-125.98940897410105				
	526	22	0.00165	0.06901	0.0	160.0	160.0	160.0	1.0685	0.0	1	-60.0001403060998	60.0001403060998	-30.46745253831441	-51.50731564026594	30.521434202369228	53.765057844157894				
	527	22	0.00165	0.06901	0.0	160.0	160.0	160.0	1.0424	0.0	1	-60.0001403060998	60.0001403060998	17.81140090311409	-11.73430751725242	-17.804887703215257	12.006717168778705				
	37	23	0.01163	0.07031	0.1058	394.0	394.0	394.0	0	0	1	-60.0001403060998	60.0001403060998	-15.989949063710965	-1.0428040240878949	16.01926255874539	-10.46744268834161				
	46	23	0.00837	0.04868	0.07348	457.0	457.0	457.0	0	0	1	-60.0001403060998	60.0001403060998	8.599745128712149	10.764438725627862	-8.577662343702185	-18.80071386560658				
	53	23	0.01122	0.06558	0.09835	274.0	274.0	274.0	0	0	1	-60.0001403060998	60.0001403060998	97.3218333523954	-21.933810008273948	-96.32738364648327	16.914638124811237				
	540	23	0.0014	0.0668	0.0	160.0	160.0	160.0	1.0182	0.0	1	-60.0001403060998	60.0001403060998	-88.78358595159936	-7.477238676737522	88.88578343144006	12.35351842913695				
	54	24	0.00769	0.05727	0.08789	160.0	160.0	160.0	0	0	1	-60.0001403060998	60.0001403060998	47.204404793865336	-9.482797119335542	-47.04810901665161	0.9244968676107709				
	545	24	0.00151	0.06715	0.0	160.0	160.0	160.0	1.0161	0.0	1	-60.0001403060998	60.0001403060998	-47.017864024576824	2.2694976741156343	47.04810901665161	-0.9244968676107709				
	41	25	0.00556	0.04145	0.0636	274.0	274.0	274.0	0	0	1	-60.0001403060998	60.0001403060998	93.14758650176638	-2.386811032016216	-92.71533264182035	-1.4581511853364866				
	53	25	0.00452	0.03368	0.05169	463.99999999999994	463.99999999999994	463.99999999999994	0	0	1	-60.0001403060998	60.0001403060998	-122.22128282578436	5.816304046271588	122.83848568075089	-6.917971839331686				
	54	25	0.00019	0.0014	0.00213	463.99999999999994	463.99999999999994	463.99999999999994	0	0	1	-60.0001403060998	60.0001403060998	92.23902579378066	8.258823679043676	-92.22430037041342	-8.386013971948111				
	564	25	0.00157	0.07808	0.0	160.0	160.0	160.0	1.0276	0.0	1	-60.0001403060998	60.0001403060998	-62.042427253652846	-13.841841660965803	62.101147331482885	16.762136996616285				
	38	26	0.00698	0.05196	0.07967	160.0	160.0	160.0	0	0	1	-60.0001403060998	60.0001403060998	66.07266945188651	4.818627841057702	-65.7918198841914	-11.470032078221717				
	568	26	0.00149	0.06616	0.0	160.0	160.0	160.0	1.013	0.0	1	-60.0001403060998	60.0001403060998	-65.7307635143255	-8.758965346457696	65.7918198841914	11.470032078221717				
	28	27	0.0	0.0001	0.0	876.0	876.0	876.0	0	0	1	-60.0001403060998	60.0001403060998	95.45975092365389	-14.322533654353172	-95.45975092365389	14.330826023218862				
	33	27	0.0024	0.01494	0.02253	160.0	160.0	160.0	0	0	1	-60.0001403060998	60.0001403060998	-97.09371339042627	-20.920445636795137	97.30534730005954	19.718321847838737				
	48	27	0.01213	0.06215	0.09371	362.0	362.0	362.0	0	0	1	-60.0001403060998	60.0001403060998	-159.7596000754288	30.48282819124653	162.6627971263522	-26.119325597431057				
	27	74	0.01116	0.07231	0.10367	304.0	304.0	304.0	0	0	1	-60.0001403060998	60.0001403060998	-164.50839350275783	-7.929822273626538	167.1966475511794	13.425967952682106				
	47	28	0.00248	0.01798	0.02759	463.99999999999994	463.99999999999994	463.99999999999994	0	0	1	-60.0001403060998	60.0001403060998	-77.03176965516906	-18.021624286270285	77.16995608674071	15.937034523887855				
	28	88	0.01488	0.08161	0.1148	362.0	362.0	362.0	0	0	1	-60.0001403060998	60.0001403060998	-172.62970701039458	-1.6145008695346834	176.57922890042545	10.021917710241064				
	30	29	0.0	0.0001	0.0	876.0	876.0	876.0	0	0	1	-60.0001403060998	60.0001403060998	-58.50414844864863	-98.6942123434951	58.50414844864863	98.70572335208678				
	29	32	0.00034	0.02097	0.0	500.0	500.0	500.0	1.0619	0.0	1	-60.0001403060998	60.0001403060998	-437.52102884782016	-1.150790564577646	438.1627128891653	40.727597467541216				
	45	29	0.00545	0.04021	0.06699	463.99999999999994	463.99999999999994	463.99999999999994	0	0	1	-60.0001403060998	60.0001403060998	-40.27722752067945	-28.586752438643288	40.386282311838464	21.812184624635297				
	48	29	0.00574	0.04283	0.06573	463.99999999999994	463.99999999999994	463.99999999999994	0	0	1	-60.0001403060998	60.0001403060998	6.025338962631919	-32.34177170489625	-5.981366140284945	25.230991744114107				
	613	29	0.00157	0.06775	0.0	160.0	160.0	160.0	1.0016	0.0	1	-60.0001403060998	60.0001403060998	-73.60415305498931	33.3862251206309	73.69076157281646	-29.64881933541487				
	46	30	0.00545	0.04021	0.06699	463.99999999999994	463.99999999999994	463.99999999999994	0	0	1	-60.0001403060998	60.0001403060998	-40.01812335765192	-28.338884187931594	40.125564547215056	21.5529547147103				
	49	30	0.00707	0.04541	0.06931	362.0	362.0	362.0	0	0	1	-60.0001403060998	60.0001403060998	5.050385833843064	-30.683550706929168	-5.003417083747698	23.14173125228462				
	32	31	0.0	0.0001	0.0	1593.0	1593.0	1593.0	0	0	1	-60.0001403060998	60.0001403060998	-739.8631156815319	-85.60028948236481	739.8631156815319	86.14093545712403				
	39	31	0.00176	0.02144	0.57344	1385.0	1385.0	1385.0	0	0	1	-60.0001403060998	60.0001403060998	86.88136413553748	-43.12253598384377	-86.74822856216655	-14.010859552244783				
	36	32	0.00167	0.0189	0.54176	498.00000000000006	498.00000000000006	498.00000000000006	0	0	1	-60.0001403060998	60.0001403060998	-300.1329521593849	-81.79458908138288	301.7004027923667	44.87269201482361				
	615	33	0.00163	0.06946	0.0	160.0	160.0	160.0	1.0291	0.0	1	-60.0001403060998	60.0001403060998	-96.94923343392703	-14.76364945370603	97.09371339042627	20.920445636795137				
...